$*$$$$$$$$$$$$$$$$$$$$$$$$$$$$$$$$$$$$$$$$$$$$$$$$$$$$$$$$$$$
$*
$*                  I-DEAS 8 NASTRAN TRANSLATOR
$*                    FOR MSC/NASTRAN VERSION 70.7
$*
$*           MODEL FILE: /project/oeystein/FEDEMTest/test_i01.mf1
$*           INPUT FILE: /project/oeystein/FEDEMTest/CHEXA08_.nas
$*             EXPORTED: AT 11:02:58 ON 30-Apr-01
$*                 PART: CHEXA08_
$*                  FEM: Fem1
$*
$*                UNITS: SI-Meter (newton)
$*                      ... LENGTH : meter
$*                      ... TIME   : sec
$*                      ... MASS   : kilogram (kg)
$*                      ... FORCE  : newton(N)
$*                      ... TEMPERATURE : deg Celsius
$*
$*        SUBSET EXPORT: OFF
$*
$*     REAL DATA FILTER: ON (    .1000E-14)
$*
$*$$$$$$$$$$$$$$$$$$$$$$$$$$$$$$$$$$$$$$$$$$$$$$$$$$$$$$$$$$$
$*
$*$$$$$$$$$$$$$$$$$$$$$$$$$$$$$$$$$$$$$$
$*
$*  BULK DATA
$*
$*$$$$$$$$$$$$$$$$$$$$$$$$$$$$$$$$$$$$$$
$*
BEGIN BULK
$*
$*
$*
$*  GRID CARDS
$*
GRID*                  1               0     0.100000000     0.050000000+
*                    0.0               0
GRID*                  2               0     0.100000000             0.0+
*                    0.0               0
GRID*                  3               0     0.100000000    -0.050000000+
*                    0.0               0
GRID*                  4               0     0.050000000     0.050000000+
*                    0.0               0
GRID*                  5               0     0.050000000             0.0+
*                    0.0               0
GRID*                  6               0     0.050000000    -0.050000000+
*                    0.0               0
GRID*                  7               0             0.0     0.050000000+
*                    0.0               0
GRID*                  8               0             0.0             0.0+
*                    0.0               0
GRID*                  9               0             0.0    -0.050000000+
*                    0.0               0
GRID*                 10               0    -0.050000000     0.050000000+
*                    0.0               0
GRID*                 11               0    -0.050000000             0.0+
*                    0.0               0
GRID*                 12               0    -0.050000000    -0.050000000+
*                    0.0               0
GRID*                 13               0    -0.100000000     0.050000000+
*                    0.0               0
GRID*                 14               0    -0.100000000             0.0+
*                    0.0               0
GRID*                 15               0    -0.100000000    -0.050000000+
*                    0.0               0
GRID*                 16               0     0.100000000     0.050000000+
*           -0.125000000               0
GRID*                 17               0     0.100000000             0.0+
*           -0.125000000               0
GRID*                 18               0     0.100000000    -0.050000000+
*           -0.125000000               0
GRID*                 19               0     0.050000000     0.050000000+
*           -0.125000000               0
GRID*                 20               0     0.050000000             0.0+
*           -0.125000000               0
$ ... 230 like lines cut
$*
$*  ELEMENT CARDS
$*
CHEXA*                 1               2               1               2+
*                      5               4              16              17+
*                     20              19
CHEXA*                 2               2               2               3+
*                      6               5              17              18+
*                     21              20
CHEXA*                 3               2               4               5+
*                      8               7              19              20+
*                     23              22
CHEXA*                 4               2               5               6+
*                      9               8              20              21+
*                     24              23
CHEXA*                 5               2               7               8+
*                     11              10              22              23+
*                     26              25
CHEXA*                 6               2               8               9+
*                     12              11              23              24+
*                     27              26
CHEXA*                 7               2              10              11+
*                     14              13              25              26+
*                     29              28
CHEXA*                 8               2              11              12+
*                     15              14              26              27+
*                     30              29
CHEXA*                 9               2              16              17+
*                     20              19              31              32+
*                     35              34
CHEXA*                10               2              17              18+
*                     21              20              32              33+
*                     36              35
CHEXA*                11               2              19              20+
*                     23              22              34              35+
*                     38              37
CHEXA*                12               2              20              21+
*                     24              23              35              36+
*                     39              38
CHEXA*                13               2              22              23+
*                     26              25              37              38+
*                     41              40
CHEXA*                14               2              23              24+
*                     27              26              38              39+
*                     42              41
CHEXA*                15               2              25              26+
*                     29              28              40              41+
*                     44              43
CHEXA*                16               2              26              27+
*                     30              29              41              42+
*                     45              44
CHEXA*                17               2              31              32+
*                     35              34              46              47+
*                     50              49
CHEXA*                18               2              32              33+
*                     36              35              47              48+
*                     51              50
CHEXA*                19               2              34              35+
*                     38              37              49              50+
*                     53              52
CHEXA*                20               2              35              36+
*                     39              38              50              51+
*                     54              53
$ ... 132 like lines cut
RBE2*                 65             128          123456             127+
*                    130             133             134             135+
*                    132             131             129             126+
*                    123             122             125             124+
*                    121
RBE2*                 66               8          123456              11+
*                     14              13              10               7+
*                      4               1               2               5+
*                      6               3               9              12+
*                     15
$*
$*  MATERIAL CARDS
$*
$*
$*  I-DEAS Material: 1  name: GENERIC_ISOTROPIC_STEEL
MAT1*                  1 2.067999949E+11 8.015504179E+10     0.289999992+
*         7820.000000000 1.169999996E-05    21.850000381                +
*        1.500000000E+08 1.500000000E+08 6.800000000E+07
$*
$*  PROPERTY CARDS
$*
$*
$*  I-DEAS property: 2  name: SOLID2
PSOLID*                2               1                                +
*
$*
ASET,8,1,128,1
ENDDATA
