$*$$$$$$$$$$$$$$$$$$$$$$$$$$$$$$$$$$$$$$$$$$$$$$$$$$$$$$$$$$$
$*
$*                  I-DEAS 8 NASTRAN TRANSLATOR
$*                    FOR MSC/NASTRAN VERSION 70.7
$*
$*           MODEL FILE: /project/oeystein/FEDEMTest/test_i01.mf1
$*           INPUT FILE: /project/oeystein/FEDEMTest/CHEXA20_.nas
$*             EXPORTED: AT 11:03:26 ON 30-Apr-01
$*                 PART: CHEXA20_
$*                  FEM: Fem1
$*
$*                UNITS: SI-Meter (newton)
$*                      ... LENGTH : meter
$*                      ... TIME   : sec
$*                      ... MASS   : kilogram (kg)
$*                      ... FORCE  : newton(N)
$*                      ... TEMPERATURE : deg Celsius
$*
$*        SUBSET EXPORT: OFF
$*
$*     REAL DATA FILTER: ON (    .1000E-14)
$*
$*$$$$$$$$$$$$$$$$$$$$$$$$$$$$$$$$$$$$$$$$$$$$$$$$$$$$$$$$$$$
$*
$*$$$$$$$$$$$$$$$$$$$$$$$$$$$$$$$$$$$$$$
$*
$*  BULK DATA
$*
$*$$$$$$$$$$$$$$$$$$$$$$$$$$$$$$$$$$$$$$
$*
BEGIN BULK
$*
$*
$*
$*  COORDINATE SYSTEM CARDS
$*
$*
$*  GRID CARDS
$*
GRID*                  1               0     0.100000000     0.050000000+
*                    0.0               0
GRID*                  2               0     0.100000000             0.0+
*                    0.0               0
GRID*                  3               0     0.100000000    -0.050000000+
*                    0.0               0
GRID*                  4               0     0.050000000     0.050000000+
*                    0.0               0
GRID*                  5               0     0.050000000    -0.050000000+
*                    0.0               0
GRID*                  6               0             0.0     0.050000000+
*                    0.0               0
GRID*                  7               0             0.0             0.0+
*                    0.0               0
GRID*                  8               0             0.0    -0.050000000+
*                    0.0               0
GRID*                  9               0    -0.050000000     0.050000000+
*                    0.0               0
GRID*                 10               0    -0.050000000    -0.050000000+
*                    0.0               0
GRID*                 11               0    -0.100000000     0.050000000+
*                    0.0               0
GRID*                 12               0    -0.100000000             0.0+
*                    0.0               0
GRID*                 13               0    -0.100000000    -0.050000000+
*                    0.0               0
GRID*                 14               0     0.100000000     0.050000000+
*           -0.125000000               0
GRID*                 15               0     0.100000000    -0.050000000+
*           -0.125000000               0
GRID*                 16               0             0.0     0.050000000+
*           -0.125000000               0
GRID*                 17               0             0.0    -0.050000000+
*           -0.125000000               0
GRID*                 18               0    -0.100000000     0.050000000+
*           -0.125000000               0
GRID*                 19               0    -0.100000000    -0.050000000+
*           -0.125000000               0
GRID*                 20               0     0.100000000     0.050000000+
*           -0.250000000               0
$ ... 138 like lines cut
$*
$*  ELEMENT CARDS
$*
CHEXA*                 1               2               1               3+
*                      8               6              20              22+
*                     27              25               2               5+
*                      7               4              14              15+
*                     17              16              21              24+
*                     26              23
CHEXA*                 2               2               6               8+
*                     13              11              25              27+
*                     32              30               7              10+
*                     12               9              16              17+
*                     19              18              26              29+
*                     31              28
CHEXA*                 3               2              20              22+
*                     27              25              39              41+
*                     46              44              21              24+
*                     26              23              33              34+
*                     36              35              40              43+
*                     45              42
CHEXA*                 4               2              25              27+
*                     32              30              44              46+
*                     51              49              26              29+
*                     31              28              35              36+
*                     38              37              45              48+
*                     50              47
CHEXA*                 5               2              39              41+
*                     46              44              58              60+
*                     65              63              40              43+
*                     45              42              52              53+
*                     55              54              59              62+
*                     64              61
CHEXA*                 6               2              44              46+
*                     51              49              63              65+
*                     70              68              45              48+
*                     50              47              54              55+
*                     57              56              64              67+
*                     69              66
CHEXA*                 7               2              58              60+
*                     65              63              77              79+
*                     84              82              59              62+
*                     64              61              71              72+
*                     74              73              78              81+
*                     83              80
CHEXA*                 8               2              63              65+
*                     70              68              82              84+
*                     89              87              64              67+
*                     69              66              73              74+
*                     76              75              83              86+
*                     88              85
RBE2*                  9               7          123456               6+
*                      9              11              12              13+
*                     10               8               5               3+
*                      2               1               4
RBE2*                 10              83          123456              82+
*                     85              87              88              89+
*                     86              84              81              79+
*                     77              78              80
$*
$*  MATERIAL CARDS
$*
$*
$*  I-DEAS Material: 1  name: GENERIC_ISOTROPIC_STEEL
MAT1*                  1 2.067999949E+11 8.015504179E+10     0.289999992+
*         7820.000000000 1.169999996E-05    21.850000381                +
*        1.500000000E+08 1.500000000E+08 6.800000000E+07
$*
$*  PROPERTY CARDS
$*
$*
$*  I-DEAS property: 2  name: SOLID2
PSOLID*                2               1               0                +
*
$*
ASET,7,1,83,1
ENDDATA
