$*$$$$$$$$$$$$$$$$$$$$$$$$$$$$$$$$$$$$$$$$$$$$$$$$$$$$$$$$$$$
$*
$*                  I-DEAS 8 NASTRAN TRANSLATOR
$*                    FOR MSC/NASTRAN VERSION 70.7
$*
$*           MODEL FILE: /project/oeystein/FEDEMTest/test_i01.mf1
$*           INPUT FILE: /project/oeystein/FEDEMTest/CPENTA15_.nas
$*             EXPORTED: AT 11:04:22 ON 30-Apr-01
$*                 PART: CPENTA15_
$*                  FEM: Fem1
$*
$*                UNITS: SI-Meter (newton)
$*                      ... LENGTH : meter
$*                      ... TIME   : sec
$*                      ... MASS   : kilogram (kg)
$*                      ... FORCE  : newton(N)
$*                      ... TEMPERATURE : deg Celsius
$*
$*        SUBSET EXPORT: OFF
$*
$*     REAL DATA FILTER: ON (    .1000E-14)
$*
$*$$$$$$$$$$$$$$$$$$$$$$$$$$$$$$$$$$$$$$$$$$$$$$$$$$$$$$$$$$$
$*
$*$$$$$$$$$$$$$$$$$$$$$$$$$$$$$$$$$$$$$$
$*
$*  BULK DATA
$*
$*$$$$$$$$$$$$$$$$$$$$$$$$$$$$$$$$$$$$$$
$*
BEGIN BULK
$*
$*
$*
$*  GRID CARDS
$*
GRID*                  1               0    -0.100000000     0.050000000+
*                    0.0               0
GRID*                  2               0    -0.050000000     0.050000000+
*                    0.0               0
GRID*                  3               0             0.0     0.050000000+
*                    0.0               0
GRID*                  4               0     0.050000000     0.050000000+
*                    0.0               0
GRID*                  5               0     0.100000000     0.050000000+
*                    0.0               0
GRID*                  6               0    -0.050000000     0.025000000+
*                    0.0               0
GRID*                  7               0             0.0     0.025000000+
*                    0.0               0
GRID*                  8               0     0.050000000     0.025000000+
*                    0.0               0
GRID*                  9               0             0.0             0.0+
*                    0.0               0
GRID*                 14               0    -0.100000000     0.050000000+
*           -0.125000000               0
GRID*                 15               0             0.0     0.050000000+
*           -0.125000000               0
GRID*                 16               0     0.100000000     0.050000000+
*           -0.125000000               0
GRID*                 17               0             0.0             0.0+
*           -0.125000000               0
GRID*                 22               0    -0.100000000     0.050000000+
*           -0.250000000               0
GRID*                 23               0    -0.050000000     0.050000000+
*           -0.250000000               0
GRID*                 24               0             0.0     0.050000000+
*           -0.250000000               0
GRID*                 25               0     0.050000000     0.050000000+
*           -0.250000000               0
GRID*                 26               0     0.100000000     0.050000000+
*           -0.250000000               0
GRID*                 27               0    -0.050000000     0.025000000+
*           -0.250000000               0
GRID*                 28               0             0.0     0.025000000+
*           -0.250000000               0
$ ... 206 like lines cut
$*
$*  ELEMENT CARDS
$*
CPENTA*                1               2               1               3+
*                      9              22              24              30+
*                      2               7               6              14+
*                     15              17              23              28+
*                     27
CPENTA*                2               2               3               5+
*                      9              24              26              30+
*                      4               8               7              15+
*                     16              17              25              29+
*                     28
CPENTA*                3               2              22              24+
*                     30              43              45              51+
*                     23              28              27              35+
*                     36              38              44              49+
*                     48
CPENTA*                4               2              24              26+
*                     30              45              47              51+
*                     25              29              28              36+
*                     37              38              46              50+
*                     49
CPENTA*                5               2              43              45+
*                     51              64              66              72+
*                     44              49              48              56+
*                     57              59              65              70+
*                     69
CPENTA*                6               2              45              47+
*                     51              66              68              72+
*                     46              50              49              57+
*                     58              59              67              71+
*                     70
CPENTA*                7               2              64              66+
*                     72              85              87              93+
*                     65              70              69              77+
*                     78              80              86              91+
*                     90
CPENTA*                8               2              66              68+
*                     72              87              89              93+
*                     67              71              70              78+
*                     79              80              88              92+
*                     91
CPENTA*                9               2               5              96+
*                      9              26             109              30+
*                     95              98               8              16+
*                    103              17             108             111+
*                     29
CPENTA*               10               2              26             109+
*                     30              47             122              51+
*                    108             111              29              37+
*                    116              38             121             124+
*                     50
CPENTA*               11               2              47             122+
*                     51              68             135              72+
*                    121             124              50              58+
*                    129              59             134             137+
*                     71
CPENTA*               12               2              68             135+
*                     72              89             148              93+
*                    134             137              71              79+
*                    142              80             147             150+
*                     92
CPENTA*               13               2             151               1+
*                      9             164              22              30+
*                    152               6             154             159+
*                     14              17             165              27+
*                    167
CPENTA*               14               2             164              22+
*                     30             177              43              51+
*                    165              27             167             172+
*                     35              38             178              48+
*                    180
CPENTA*               15               2             177              43+
*                     51             190              64              72+
*                    178              48             180             185+
*                     56              59             191              69+
*                    193
CPENTA*               16               2             190              64+
*                     72             203              85              93+
*                    191              69             193             198+
*                     77              80             204              90+
*                    206
CPENTA*               17               2              96             209+
*                      9             109             230              30+
*                    208             213              98             103+
*                    221              17             229             234+
*                    111
CPENTA*               18               2             209             151+
*                      9             230             164              30+
*                    210             154             213             221+
*                    159              17             231             167+
*                    234
CPENTA*               19               2             109             230+
*                     30             122             251              51+
*                    229             234             111             116+
*                    242              38             250             255+
*                    124
CPENTA*               20               2             230             164+
*                     30             251             177              51+
*                    231             167             234             242+
*                    172              38             252             180+
*                    255
CPENTA*               21               2             122             251+
*                     51             135             272              72+
*                    250             255             124             129+
*                    263              59             271             276+
*                    137
CPENTA*               22               2             251             177+
*                     51             272             190              72+
*                    252             180             255             263+
*                    185              59             273             193+
*                    276
CPENTA*               23               2             135             272+
*                     72             148             293              93+
*                    271             276             137             142+
*                    284              80             292             297+
*                    150
CPENTA*               24               2             272             190+
*                     72             293             203              93+
*                    273             193             276             284+
*                    198              80             294             206+
*                    297
RBE2*                 25              93          123456              90+
*                     85              86              87              91+
*                     88              89              92             147+
*                    148             150             293             292+
*                    294             203             204             206
RBE2*                 26               9          123456             151+
*                    152               1               6             154+
*                      2               3               7             213+
*                    209             210             208              96+
*                     98               8               4               5+
*                     95
$*
$*  MATERIAL CARDS
$*
$*
$*  I-DEAS Material: 1  name: GENERIC_ISOTROPIC_STEEL
MAT1*                  1 2.067999949E+11 8.015504179E+10     0.289999992+
*         7820.000000000 1.169999996E-05    21.850000381                +
*        1.500000000E+08 1.500000000E+08 6.800000000E+07
$*
$*  PROPERTY CARDS
$*
$*
$*  I-DEAS property: 2  name: SOLID2
PSOLID*                2               1                                +
*
$*
ASET,9,1,93,1
ENDDATA
