$*$$$$$$$$$$$$$$$$$$$$$$$$$$$$$$$$$$$$$$$$$$$$$$$$$$$$$$$$$$$
$*
$*                  I-DEAS 8 NASTRAN TRANSLATOR
$*                    FOR MSC/NASTRAN VERSION 70.7
$*
$*           MODEL FILE: /project/oeystein/FEDEMTest/test_i01.mf1
$*           INPUT FILE: /project/oeystein/FEDEMTest/CPENTA06_.nas
$*             EXPORTED: AT 11:03:58 ON 30-Apr-01
$*                 PART: CPENTA06_
$*                  FEM: Fem1
$*
$*                UNITS: SI-Meter (newton)
$*                      ... LENGTH : meter
$*                      ... TIME   : sec
$*                      ... MASS   : kilogram (kg)
$*                      ... FORCE  : newton(N)
$*                      ... TEMPERATURE : deg Celsius
$*
$*        SUBSET EXPORT: OFF
$*
$*     REAL DATA FILTER: ON (    .1000E-14)
$*
$*$$$$$$$$$$$$$$$$$$$$$$$$$$$$$$$$$$$$$$$$$$$$$$$$$$$$$$$$$$$
$*
$*$$$$$$$$$$$$$$$$$$$$$$$$$$$$$$$$$$$$$$
$*
$*  BULK DATA
$*
$*$$$$$$$$$$$$$$$$$$$$$$$$$$$$$$$$$$$$$$
$*
BEGIN BULK
$*
$*
$*
$*  GRID CARDS
$*
GRID*                  1               0    -0.100000000     0.050000000+
*                    0.0               0
GRID*                  2               0    -0.050000000     0.050000000+
*                    0.0               0
GRID*                  3               0             0.0     0.050000000+
*                    0.0               0
GRID*                  4               0     0.050000000     0.050000000+
*                    0.0               0
GRID*                  5               0     0.100000000     0.050000000+
*                    0.0               0
GRID*                  6               0             0.0             0.0+
*                    0.0               0
GRID*                 11               0    -0.100000000     0.050000000+
*           -0.125000000               0
GRID*                 12               0    -0.050000000     0.050000000+
*           -0.125000000               0
GRID*                 13               0             0.0     0.050000000+
*           -0.125000000               0
GRID*                 14               0     0.050000000     0.050000000+
*           -0.125000000               0
GRID*                 15               0     0.100000000     0.050000000+
*           -0.125000000               0
GRID*                 16               0             0.0             0.0+
*           -0.125000000               0
GRID*                 21               0    -0.100000000     0.050000000+
*           -0.250000000               0
GRID*                 22               0    -0.050000000     0.050000000+
*           -0.250000000               0
GRID*                 23               0             0.0     0.050000000+
*           -0.250000000               0
GRID*                 24               0     0.050000000     0.050000000+
*           -0.250000000               0
GRID*                 25               0     0.100000000     0.050000000+
*           -0.250000000               0
GRID*                 26               0             0.0             0.0+
*           -0.250000000               0
GRID*                 31               0    -0.100000000     0.050000000+
*           -0.375000000               0
GRID*                 32               0    -0.050000000     0.050000000+
*           -0.375000000               0
$ ... 194 like lines cut
$*
$*  ELEMENT CARDS
$*
CPENTA*                1               2               1               2+
*                      6              11              12              16
CPENTA*                2               2               2               3+
*                      6              12              13              16
CPENTA*                3               2               3               4+
*                      6              13              14              16
CPENTA*                4               2               4               5+
*                      6              14              15              16
CPENTA*                5               2              11              12+
*                     16              21              22              26
CPENTA*                6               2              12              13+
*                     16              22              23              26
CPENTA*                7               2              13              14+
*                     16              23              24              26
CPENTA*                8               2              14              15+
*                     16              24              25              26
CPENTA*                9               2              21              22+
*                     26              31              32              36
CPENTA*               10               2              22              23+
*                     26              32              33              36
CPENTA*               11               2              23              24+
*                     26              33              34              36
CPENTA*               12               2              24              25+
*                     26              34              35              36
CPENTA*               13               2              31              32+
*                     36              41              42              46
CPENTA*               14               2              32              33+
*                     36              42              43              46
CPENTA*               15               2              33              34+
*                     36              43              44              46
CPENTA*               16               2              34              35+
*                     36              44              45              46
CPENTA*               17               2              41              42+
*                     46              51              52              56
CPENTA*               18               2              42              43+
*                     46              52              53              56
CPENTA*               19               2              43              44+
*                     46              53              54              56
CPENTA*               20               2              44              45+
*                     46              54              55              56
$ ... 152 like lines cut
RBE2*                 97              86          123456             270+
*                    271             186             187              81+
*                     82              83              84              85+
*                    136             137             269
RBE2*                 98               6          123456             190+
*                    189              89              88               5+
*                      4               3               2               1+
*                    139             138             191
$*
$*  MATERIAL CARDS
$*
$*
$*  I-DEAS Material: 1  name: GENERIC_ISOTROPIC_STEEL
MAT1*                  1 2.067999949E+11 8.015504179E+10     0.289999992+
*         7820.000000000 1.169999996E-05    21.850000381                +
*        1.500000000E+08 1.500000000E+08 6.800000000E+07
$*
$*  PROPERTY CARDS
$*
$*
$*  I-DEAS property: 2  name: SOLID2
PSOLID*                2               1                                +
*
$*
ASET,6,1,86,1
ENDDATA
