$*$$$$$$$$$$$$$$$$$$$$$$$$$$$$$$$$$$$$$$$$$$$$$$$$$$$$$$$$$$$
$*
$*                  I-DEAS 8 NASTRAN TRANSLATOR
$*                    FOR MSC/NASTRAN VERSION 70.7
$*
$*           MODEL FILE: /project/oeystein/FEDEMTest/test_i01.mf1
$*           INPUT FILE: /project/oeystein/FEDEMTest/CTETRA04_.nas
$*             EXPORTED: AT 11:04:53 ON 30-Apr-01
$*                 PART: CTETRA04_
$*                  FEM: Fem1
$*
$*                UNITS: SI-Meter (newton)
$*                      ... LENGTH : meter
$*                      ... TIME   : sec
$*                      ... MASS   : kilogram (kg)
$*                      ... FORCE  : newton(N)
$*                      ... TEMPERATURE : deg Celsius
$*
$*        SUBSET EXPORT: OFF
$*
$*     REAL DATA FILTER: ON (    .1000E-14)
$*
$*$$$$$$$$$$$$$$$$$$$$$$$$$$$$$$$$$$$$$$$$$$$$$$$$$$$$$$$$$$$
$*
$*$$$$$$$$$$$$$$$$$$$$$$$$$$$$$$$$$$$$$$
$*
$*  BULK DATA
$*
$*$$$$$$$$$$$$$$$$$$$$$$$$$$$$$$$$$$$$$$
$*
BEGIN BULK
$*
$*
$*
$*  GRID CARDS
$*
GRID*                  1               0             0.0             0.0+
*           -1.000000000               0
GRID*                  2               0             0.0             0.0+
*           -0.875000000               0
GRID*                  3               0             0.0    -0.050000000+
*           -0.875000000               0
GRID*                  4               0             0.0    -0.050000000+
*           -1.000000000               0
GRID*                  5               0     0.050000000             0.0+
*           -1.000000000               0
GRID*                  6               0     0.050000000             0.0+
*           -0.875000000               0
GRID*                  7               0     0.050000000    -0.050000000+
*           -1.000000000               0
GRID*                  8               0     0.050000000    -0.050000000+
*           -0.875000000               0
GRID*                  9               0     0.100000000    -0.050000000+
*           -1.000000000               0
GRID*                 10               0     0.100000000             0.0+
*           -1.000000000               0
GRID*                 11               0     0.100000000    -0.050000000+
*           -0.875000000               0
GRID*                 12               0     0.100000000             0.0+
*           -0.875000000               0
GRID*                 13               0             0.0             0.0+
*           -0.375000000               0
GRID*                 14               0             0.0             0.0+
*           -0.250000000               0
GRID*                 15               0             0.0    -0.050000000+
*           -0.250000000               0
GRID*                 16               0             0.0    -0.050000000+
*           -0.375000000               0
GRID*                 17               0     0.050000000             0.0+
*           -0.375000000               0
GRID*                 18               0     0.050000000             0.0+
*           -0.250000000               0
GRID*                 19               0     0.050000000    -0.050000000+
*           -0.250000000               0
GRID*                 20               0     0.050000000    -0.050000000+
*           -0.375000000               0
$ ... 310 like lines cut
$*
$*  ELEMENT CARDS
$*
CTETRA*                1               2               6               7+
*                      8               3
CTETRA*                2               2             136               4+
*                      7               3
CTETRA*                3               2             136               4+
*                      1               7
CTETRA*                4               2             136               4+
*                      2               1
CTETRA*                5               2               2               6+
*                      3             136
CTETRA*                6               2             136               1+
*                      2               5
CTETRA*                7               2               2               5+
*                      6             136
CTETRA*                8               2             136               1+
*                      5               7
CTETRA*                9               2               7               6+
*                      5             136
CTETRA*               10               2             136               4+
*                      3               2
CTETRA*               11               2               6               7+
*                      3             136
CTETRA*               12               2               6               9+
*                      5              10
CTETRA*               13               2               6               9+
*                      8               7
CTETRA*               14               2               6               9+
*                      7               5
CTETRA*               15               2              11               6+
*                     12               9
CTETRA*               16               2               6               9+
*                     10              12
CTETRA*               17               2              11               6+
*                      9               8
CTETRA*               18               2             137              16+
*                     13              20
CTETRA*               19               2             137              16+
*                     14              13
CTETRA*               20               2              18              20+
*                     19              15
$ ... 1132 like lines cut
RBE2*                587               1          123456              86+
*                     85             118             120              55+
*                     57              60              10               5+
*                      9               7               4              88+
*                     84
RBE2*                588              49          123456             115+
*                    117              50              52              53+
*                     54              81              80              79+
*                    135             134             114             116+
*                     51
$*
$*  MATERIAL CARDS
$*
$*
$*  I-DEAS Material: 1  name: GENERIC_ISOTROPIC_STEEL
MAT1*                  1 2.067999949E+11 8.015504179E+10     0.289999992+
*         7820.000000000 1.169999996E-05    21.850000381                +
*        1.500000000E+08 1.500000000E+08 6.800000000E+07
$*
$*  PROPERTY CARDS
$*
$*
$*  I-DEAS property: 2  name: SOLID2
PSOLID*                2               1                                +
*
$*
ASET,1,1,49,1
ENDDATA
