$*$$$$$$$$$$$$$$$$$$$$$$$$$$$$$$$$$$$$$$$$$$$$$$$$$$$$$$$$$$$
$*
$*                  I-DEAS 8 NASTRAN TRANSLATOR
$*                    FOR MSC/NASTRAN VERSION 70.7
$*
$*           MODEL FILE: /project/oeystein/FEDEMTest/test_i01.mf1
$*           INPUT FILE: /project/oeystein/FEDEMTest/CTETRA10_.nas
$*             EXPORTED: AT 11:05:19 ON 30-Apr-01
$*                 PART: CTETRA10_
$*                  FEM: Fem1
$*
$*                UNITS: SI-Meter (newton)
$*                      ... LENGTH : meter
$*                      ... TIME   : sec
$*                      ... MASS   : kilogram (kg)
$*                      ... FORCE  : newton(N)
$*                      ... TEMPERATURE : deg Celsius
$*
$*        SUBSET EXPORT: OFF
$*
$*     REAL DATA FILTER: ON (    .1000E-14)
$*
$*$$$$$$$$$$$$$$$$$$$$$$$$$$$$$$$$$$$$$$$$$$$$$$$$$$$$$$$$$$$
$*
$*$$$$$$$$$$$$$$$$$$$$$$$$$$$$$$$$$$$$$$
$*
$*  BULK DATA
$*
$*$$$$$$$$$$$$$$$$$$$$$$$$$$$$$$$$$$$$$$
$*
BEGIN BULK
$*
$*
$*
$*  GRID CARDS
$*
GRID*                  1               0     0.100000000    -0.050000000+
*           -1.000000000               0
GRID*                  2               0             0.0    -0.050000000+
*           -1.000000000               0
GRID*                  3               0     0.100000000     0.050000000+
*           -1.000000000               0
GRID*                  4               0             0.0     0.050000000+
*           -1.000000000               0
GRID*                  5               0             0.0    -0.050000000+
*           -0.750000000               0
GRID*                  6               0             0.0     0.050000000+
*           -0.750000000               0
GRID*                  7               0     0.100000000     0.050000000+
*           -0.750000000               0
GRID*                  8               0     0.100000000    -0.050000000+
*           -0.750000000               0
GRID*                  9               0             0.0    -0.050000000+
*           -0.500000000               0
GRID*                 10               0             0.0     0.050000000+
*           -0.500000000               0
GRID*                 11               0     0.100000000     0.050000000+
*           -0.500000000               0
GRID*                 12               0     0.100000000    -0.050000000+
*           -0.500000000               0
GRID*                 13               0    -0.100000000     0.050000000+
*           -1.000000000               0
GRID*                 14               0    -0.100000000    -0.050000000+
*           -1.000000000               0
GRID*                 15               0    -0.100000000     0.050000000+
*           -0.750000000               0
GRID*                 16               0    -0.100000000    -0.050000000+
*           -0.750000000               0
GRID*                 17               0    -0.100000000     0.050000000+
*           -0.500000000               0
GRID*                 18               0    -0.100000000    -0.050000000+
*           -0.500000000               0
GRID*                 19               0             0.0     0.050000000+
*           -0.250000000               0
GRID*                 20               0             0.0    -0.050000000+
*           -0.250000000               0
$ ... 322 like lines cut
$*
$*  ELEMENT CARDS
$*
CTETRA*                1               2               1               7+
*                      3               4              94              38+
*                     32              90              92              33
CTETRA*                2               2               1               7+
*                      4               5              94              92+
*                     90              93              95              91
CTETRA*                3               2               7               1+
*                      8               5              94              40+
*                     42              95              93              41
CTETRA*                4               2               1               4+
*                      2               5              90              34+
*                     31              93              91              36
CTETRA*                5               2               5               7+
*                      4               6              95              92+
*                     91              35              39              37
CTETRA*                6               2              11               9+
*                     10               6             100              43+
*                     47              97              96              45
CTETRA*                7               2             127               8+
*                      7              11             130              42+
*                    128             129              99              46
CTETRA*                8               2             127               8+
*                     11              12             130              99+
*                    129             131              48              50
CTETRA*                9               2             127               8+
*                      5               7             130              41+
*                    132             128              42              95
CTETRA*               10               2             127              11+
*                      7               6             129              46+
*                    128             133              97              39
CTETRA*               11               2             127              11+
*                      9              12             129             100+
*                    134             131              50              49
CTETRA*               12               2             127               9+
*                      6               5             134              96+
*                    133             132              44              35
CTETRA*               13               2               6               5+
*                      7             127              35              95+
*                     39             133             132             128
CTETRA*               14               2             127               8+
*                     12               5             130              48+
*                    131             132              41              98
CTETRA*               15               2             127               9+
*                      5              12             134              44+
*                    132             131              49              98
CTETRA*               16               2              11               9+
*                      6             127             100              96+
*                     97             129             134             133
CTETRA*               17               2              13               4+
*                      6             135              51              37+
*                    102             138             136             137
CTETRA*               18               2               6             135+
*                      5              16             137             139+
*                     35             105             140              57
CTETRA*               19               2               5               6+
*                      4             135              35              37+
*                     91             139             137             136
CTETRA*               20               2               2              13+
*                     14              16             101              52+
*                     53             103             104              56
$ ... 180 like lines cut
RBE2*                 81              34          123456             101+
*                     52              14              53               2+
*                     31               1              32               3+
*                     90              33              51              13+
*                      4
RBE2*                 82              80          123456             124+
*                     86              30              87              26+
*                     77              25              78             119+
*                     27              79              28              85+
*                     29
$*
$*  MATERIAL CARDS
$*
$*
$*  I-DEAS Material: 1  name: GENERIC_ISOTROPIC_STEEL
MAT1*                  1 2.067999949E+11 8.015504179E+10     0.289999992+
*         7820.000000000 1.169999996E-05    21.850000381                +
*        1.500000000E+08 1.500000000E+08 6.800000000E+07
$*
$*  PROPERTY CARDS
$*
$*
$*  I-DEAS property: 2  name: SOLID2
PSOLID*                2               1                                +
*
$*
ASET,34,1,80,1
ENDDATA
