BEGIN BULK
GRID,1
GRID,2,,,,2.0
GRID,3,,,,4.0
GRID,4,,,,6.0
GRID,5,,,,8.0
GRID,6,,,,10.0
CBAR,1,1,1,2,0.0,1.0
CBAR,2,1,2,3,0.0,1.0
CBAR,3,1,3,4,0.0,1.0
CBAR,4,1,4,5,0.0,1.0
CBAR,5,1,5,6,0.0,1.0
PBARL,1,1,,TUBE,,,,,0.25,0.24
MAT1,1,2.1E11,,0.29,7850.0
ASET,1,1
FORCE,1,6,,100000.0,0.0,1.0,0.0
ENDDATA
