BEGIN BULK
GRID,1
GRID,2,,100.0
GRID,3,,200.0
CBEAM,1,1,1,2,,1.0
CBEAM,2,1,2,3,,1.0
PBEAML,1,1,MSCBML0,L,,,,,100.0,200.0,20.0,10.0,,YES,1.0,100.0,200.0,20.0,10.0
MAT1,1,200000000,,0.3,0.00000785,0.00001728
FORCE,1,3,,10000000.0,,1.0
SPC,,1,123456,0.0
ENDDATA
